Version 4
SHEET 1 1936 856
WIRE 160 -96 80 -96
WIRE 256 -96 240 -96
WIRE 368 -96 256 -96
WIRE 464 -96 448 -96
WIRE 1056 -96 928 -96
WIRE 1216 -96 1136 -96
WIRE 1424 -96 1216 -96
WIRE 1520 -96 1504 -96
WIRE 80 -48 80 -96
WIRE 928 -32 928 -96
WIRE -688 0 -688 -48
WIRE -608 0 -608 -32
WIRE -512 0 -512 -32
WIRE 1344 0 1344 -16
WIRE 80 48 80 32
WIRE 304 48 304 32
WIRE 1216 48 1216 -96
WIRE 1312 48 1216 48
WIRE 256 64 256 -96
WIRE 288 64 256 64
WIRE 928 64 928 48
WIRE 464 80 464 -96
WIRE 464 80 352 80
WIRE 544 80 464 80
WIRE 672 80 624 80
WIRE 1520 80 1520 -96
WIRE 1520 80 1472 80
WIRE 1600 80 1520 80
WIRE 1728 80 1680 80
WIRE -688 96 -688 80
WIRE -512 96 -512 80
WIRE 288 96 256 96
WIRE 672 96 672 80
WIRE 1728 96 1728 80
WIRE 1312 112 1248 112
WIRE -608 128 -608 80
WIRE 304 128 304 112
WIRE 336 128 336 112
WIRE 336 128 304 128
WIRE 1344 176 1344 160
WIRE 672 192 672 160
WIRE 1728 192 1728 160
FLAG -512 96 0
FLAG -688 96 0
FLAG -608 -32 0
FLAG -688 -48 +24V
FLAG -608 128 -24V
FLAG 304 32 +24V
FLAG 304 128 -24V
FLAG 672 192 0
FLAG 80 48 0
FLAG 1344 -16 +24V
FLAG 1344 176 -24V
FLAG 1728 192 0
FLAG 928 64 0
FLAG -512 -32 SIG
FLAG 256 96 SIG
FLAG 1248 112 SIG
SYMBOL voltage -688 -16 R0
WINDOW 123 0 0 Left 0
WINDOW 39 0 0 Left 0
SYMATTR InstName V1
SYMATTR Value 24
SYMBOL voltage -608 -16 R0
WINDOW 123 0 0 Left 0
WINDOW 39 0 0 Left 0
SYMATTR InstName V2
SYMATTR Value 24
SYMBOL voltage -512 -16 R0
WINDOW 123 0 0 Left 0
WINDOW 39 0 0 Left 0
SYMATTR InstName V3
SYMATTR Value SINE(1.214 1.214 10k)
SYMBOL OpAmps\\ADA4098-1 320 80 R0
SYMATTR InstName U1
SYMBOL res 256 -112 R90
WINDOW 0 0 56 VBottom 2
WINDOW 3 32 56 VTop 2
SYMATTR InstName R1
SYMATTR Value 1k
SYMBOL res 464 -112 R90
WINDOW 0 0 56 VBottom 2
WINDOW 3 32 56 VTop 2
SYMATTR InstName R2
SYMATTR Value 18k
SYMBOL cap 656 96 R0
SYMATTR InstName C1
SYMATTR Value 15n
SYMBOL voltage 80 -64 R0
WINDOW 123 0 0 Left 0
WINDOW 39 0 0 Left 0
SYMATTR InstName V4
SYMATTR Value 1.2814
SYMBOL res 640 64 R90
WINDOW 0 0 56 VBottom 2
WINDOW 3 32 56 VTop 2
SYMATTR InstName R3
SYMATTR Value 100
SYMBOL OpAmps\\LTC6090 1376 80 R0
SYMATTR InstName U2
SYMBOL res 1152 -112 R90
WINDOW 0 0 56 VBottom 2
WINDOW 3 32 56 VTop 2
SYMATTR InstName R4
SYMATTR Value 1k
SYMBOL res 1520 -112 R90
WINDOW 0 0 56 VBottom 2
WINDOW 3 32 56 VTop 2
SYMATTR InstName R5
SYMATTR Value 18k
SYMBOL cap 1712 96 R0
SYMATTR InstName C2
SYMATTR Value 15n
SYMBOL voltage 928 -48 R0
WINDOW 123 0 0 Left 0
WINDOW 39 0 0 Left 0
SYMATTR InstName V8
SYMATTR Value 1.2814
SYMBOL res 1696 64 R90
WINDOW 0 0 56 VBottom 2
WINDOW 3 32 56 VTop 2
SYMATTR InstName R6
SYMATTR Value 100
TEXT -48 328 Left 2 !.tran 2m
